src/test/resources/bpafiles/fj/2014年年大方式20120326.lis

SCCPC 短路电流计算程序  版本 1.1.4  发布时间 Mar  3 2011 09:06:43

Wall clock : Wed Nov 07 01:09:45 2012

<SHORT_CURRENT_SCAN_RESULT>
.#      母 线                 故障类型     遮断电流  短路电流 短路容量         正序等值阻抗          负序等值阻抗          零序等值阻抗   分区
.#                          1-单相/2-三相   (kA)       (kA)     (MVA)          R1+jX1 (欧姆)         R2+jX2 (欧姆)         R0+jX0 (欧姆)      
.#---------------------    --------------- --------  -------- ---------     ------------------    ------------------    ----------------- ----
"国东明__"  525.0     B      0.0     2     63.000     19.161  17423.925      2.025     15.294      1.962     14.910      9.575     36.278 "GD" 
.L/T       母线I            母线J      ID    支路电流(kA/deg)  百分数  开断短路电流(kA/deg)
.    ---------------- ---------------- ---  -----------------  ------  --------------------
   L "国东明__" 525.0 "国三堡_C" 525.0 "1"   4.033    112.434   0.210  15.017  113.604
   L "国东明__" 525.0 "国三堡_C" 525.0 "2"   4.017    112.089   0.210  15.034  113.597
   L "国东明__" 525.0 "国三堡_C" 525.0 "3"   4.247    111.747   0.222  14.793  113.895
   L "国东明__" 525.0 "国阳城__" 525.0 "1"   2.330    120.971   0.122  17.972  115.262
   L "国东明__" 525.0 "国阳城__" 525.0 "2"   2.185    119.887   0.114  18.062  115.235
   L "国东明__" 525.0 "国阳城__" 525.0 "3"   2.176    121.798   0.114  18.068  115.251
"国枫泾__"  525.0     B      0.0     2     63.000     25.480  23169.942      0.790     11.639      0.728     11.455      1.834     20.314 "GD" 
.L/T       母线I            母线J      ID    支路电流(kA/deg)  百分数  开断短路电流(kA/deg)
.    ---------------- ---------------- ---  -----------------  ------  --------------------
   L "国枫泾__" 525.0 "沪练塘__" 525.0 "1"  12.747     78.295   0.500  19.573   75.896
   L "国枫泾__" 525.0 "沪练塘__" 525.0 "2"  12.697     78.283   0.498  19.608   75.912
"国奉贤__"  525.0     B      0.0     2     63.000     53.963  49069.832      0.507      5.502      0.459      5.353      0.321      4.401 "GD" 
.L/T       母线I            母线J      ID    支路电流(kA/deg)  百分数  开断短路电流(kA/deg)
.    ---------------- ---------------- ---  -----------------  ------  --------------------
   L "国奉贤__" 525.0 "沪远东__" 525.0 "1"  17.173     82.064   0.318  53.327   80.749
   L "国奉贤__" 525.0 "沪远东__" 525.0 "2"  17.173     82.064   0.318  53.327   80.749
   L "国奉贤__" 525.0 "沪远东__" 525.0 "3"  19.614     82.472   0.363  53.188   80.722
"国葛南_1"  230.0     B      0.0     2     50.000     40.072  15963.386      0.494      3.386      0.464      3.314      0.094      2.123 "GD" 
.L/T       母线I            母线J      ID    支路电流(kA/deg)  百分数  开断短路电流(kA/deg)
.    ---------------- ---------------- ---  -----------------  ------  --------------------
   L "国葛南_1" 230.0 "沪南桥_2" 230.0 "1"  40.071     78.820   1.000   1.361  -20.100
"国葛南_2"  230.0     B      0.0     2     50.000     40.565  16160.135      0.497      3.343      0.468      3.272      0.094      2.103 "GD" 
.L/T       母线I            母线J      ID    支路电流(kA/deg)  百分数  开断短路电流(kA/deg)
.    ---------------- ---------------- ---  -----------------  ------  --------------------
   L "国葛南_2" 230.0 "沪南桥_3" 230.0 "1"  40.565     78.319   1.000   0.000   69.860
"国三堡_C"  525.0     B      0.0     2     63.000    240.865 219025.147      0.829     -0.906      0.784     -1.118      2.737    -13.770 "GD" 
.L/T       母线I            母线J      ID    支路电流(kA/deg)  百分数  开断短路电流(kA/deg)
.    ---------------- ---------------- ---  -----------------  ------  --------------------
   L "国三堡_C" 525.0 "国东明__" 525.0 "1"   1.585     85.956   0.007 241.326 -129.747
   L "国三堡_C" 525.0 "国东明__" 525.0 "2"   1.579     85.315   0.007 241.323 -129.747
   L "国三堡_C" 525.0 "国东明__" 525.0 "3"   1.669     85.160   0.007 241.370 -129.743
   L "国三堡_C" 525.0 "国三堡__" 525.0 "1"  80.548   -128.525   0.334  45.709  -96.523
   L "国三堡_C" 525.0 "国三堡__" 525.0 "2"  80.548   -128.525   0.334  45.709  -96.523
   L "国三堡_C" 525.0 "国三堡__" 525.0 "3"  80.548   -128.525   0.334  45.709  -96.523
"国三堡__"  525.0     B      0.0     2     63.000     37.899  34462.918      0.688      7.636      0.651      7.445      2.057     14.685 "GD" 
.L/T       母线I            母线J      ID    支路电流(kA/deg)  百分数  开断短路电流(kA/deg)
.    ---------------- ---------------- ---  -----------------  ------  --------------------
   L "国三堡__" 525.0 "国三堡_C" 525.0 "1"   2.061    116.403   0.054  38.463  103.593
   L "国三堡__" 525.0 "国三堡_C" 525.0 "2"   2.061    116.403   0.054  38.463  103.593
   L "国三堡__" 525.0 "国三堡_C" 525.0 "3"   2.061    116.403   0.054  38.463  103.593
   L "国三堡__" 525.0 "苏任庄__" 525.0 "1"  10.220    104.749   0.270  29.270  103.462
   L "国三堡__" 525.0 "苏三汊__" 525.0 "1"   2.854     98.567   0.075  35.656  103.537
   L "国三堡__" 525.0 "苏三汊__" 525.0 "2"   2.865     98.297   0.076  35.646  103.551
   L "国三堡__" 525.0 "苏双泗__" 525.0 "1"   5.561    100.937   0.147  34.275  103.366
   L "国三堡__" 525.0 "苏双泗__" 525.0 "2"   5.509    100.921   0.145  34.316  103.372
   T "国三堡__" 525.0 "苏三堡B1" 230.0 "1"   2.698    100.241   0.071  36.517  103.173
   T "国三堡__" 525.0 "苏三堡B2" 230.0 "1"   2.698    100.241   0.071  36.517  103.173
"国阳城__"  525.0     B      0.0     2     63.000     18.340  16677.150      0.955     16.663      0.815     15.410      0.191     10.122 "GD" 
.L/T       母线I            母线J      ID    支路电流(kA/deg)  百分数  开断短路电流(kA/deg)
.    ---------------- ---------------- ---  -----------------  ------  --------------------
   L "国阳城__" 525.0 "国东明__" 525.0 "1"   2.288    117.292   0.125  16.913  123.390
   L "国阳城__" 525.0 "国东明__" 525.0 "2"   2.146    117.094   0.117  17.019  123.436
   L "国阳城__" 525.0 "国东明__" 525.0 "3"   2.137    117.017   0.117  17.024  123.461
   T "国阳城__" 525.0 "国阳城_1"  21.0 "1"   1.273    129.447   0.069  17.138  124.086
   T "国阳城__" 525.0 "国阳城_2"  21.0 "1"   1.273    129.447   0.069  17.138  124.086
   T "国阳城__" 525.0 "国阳城_3"  21.0 "1"   1.273    129.447   0.069  17.138  124.086
   T "国阳城__" 525.0 "国阳城_4"  21.0 "1"   1.256    126.938   0.068  17.138  124.086
   T "国阳城__" 525.0 "国阳城_5"  21.0 "1"   1.256    126.938   0.068  17.138  124.086
   T "国阳城__" 525.0 "国阳城_6"  21.0 "1"   1.256    126.938   0.068  17.138  124.086
   T "国阳城__" 525.0 "国阳城_7"  21.0 "1"   2.223    129.620   0.121  16.343  124.231
   T "国阳城__" 525.0 "国阳城_8"  21.0 "1"   2.223    129.620   0.121  16.343  124.231
"国宜华__"  525.0     B      0.0     2     63.000     42.337  38498.572      0.748      6.931      0.715      6.862      0.694      6.779 "GD" 
.L/T       母线I            母线J      ID    支路电流(kA/deg)  百分数  开断短路电流(kA/deg)
.    ---------------- ---------------- ---  -----------------  ------  --------------------
   L "国宜华__" 525.0 "沪黄渡__" 525.0 "1"  21.377     81.279   0.505  38.464   78.905
   L "国宜华__" 525.0 "沪黄渡__" 525.0 "2"  20.953     81.244   0.495  38.601   78.949
"国政平__"  525.0     B      0.0     2     63.000     54.211  49295.570      0.650      5.388      0.612      5.302      0.963      6.887 "GD" 
.L/T       母线I            母线J      ID    支路电流(kA/deg)  百分数  开断短路电流(kA/deg)
.    ---------------- ---------------- ---  -----------------  ------  --------------------
   L "国政平__" 525.0 "苏武南__" 525.0 "1"  23.174     83.548   0.427  48.922   82.690
   L "国政平__" 525.0 "苏武南__" 525.0 "2"  23.174     83.548   0.427  48.922   82.690
   L "国政平__" 525.0 "苏岷珠__" 525.0 "1"   7.860     86.095   0.145  50.553   82.582
"沪拜耳98"  230.0     B      0.0     2     50.000     27.661  11019.526      0.730      4.806      0.684      4.671      0.351      2.905 "SH" 
.L/T       母线I            母线J      ID    支路电流(kA/deg)  百分数  开断短路电流(kA/deg)
.    ---------------- ---------------- ---  -----------------  ------  --------------------
   L "沪拜耳98" 230.0 "沪目华__" 230.0 "1"  27.659     76.613   1.000   0.054  154.861
"沪拜耳99"  230.0     B      0.0     2     50.000     27.807  11077.363      0.736      4.779      0.689      4.645      0.351      2.894 "SH" 
.L/T       母线I            母线J      ID    支路电流(kA/deg)  百分数  开断短路电流(kA/deg)
.    ---------------- ---------------- ---  -----------------  ------  --------------------
   L "沪拜耳99" 230.0 "沪目华__" 230.0 "1"  27.804     76.722   1.000   0.055  148.653
"沪宝钢Y1"  115.0     B      0.0     2     30.000     21.766   4335.552      0.098      3.024      0.080      2.670      0.112 100000.000 "SB" 
.L/T       母线I            母线J      ID    支路电流(kA/deg)  百分数  开断短路电流(kA/deg)
.    ---------------- ---------------- ---  -----------------  ------  --------------------
   L "沪宝钢Y1" 115.0 "沪宝钢Y2" 115.0 "9"  10.183     85.915   0.468  21.452   86.461
   L "沪宝钢Y1" 115.0 "沪宝钢_1" 115.0 "1"   6.983     83.302   0.321  21.620   86.371
   T "沪宝钢Y1" 115.0 "沪宝钢_1"  21.0 "1"   5.046     94.849   0.232  17.062   86.769
"沪宝钢Y2"  115.0     B      0.0     2     30.000     21.766   4335.546      0.098      3.024      0.080      2.670      0.112 100000.000 "SB" 
.L/T       母线I            母线J      ID    支路电流(kA/deg)  百分数  开断短路电流(kA/deg)
.    ---------------- ---------------- ---  -----------------  ------  --------------------
   L "沪宝钢Y2" 115.0 "沪宝钢Y1" 115.0 "9"  10.190     85.916   0.468  21.451   86.460
   L "沪宝钢Y2" 115.0 "沪宝钢_2" 115.0 "2"   6.978     83.299   0.321  21.620   86.371
   T "沪宝钢Y2" 115.0 "沪宝钢_2"  21.0 "2"   5.043     94.855   0.232  17.064   86.769
"沪宝钢_1"  115.0     B      0.0     2     30.000     21.804   4342.975      0.098      3.017      0.081      2.670      0.090 100000.000 "SB" 
.L/T       母线I            母线J      ID    支路电流(kA/deg)  百分数  开断短路电流(kA/deg)
.    ---------------- ---------------- ---  -----------------  ------  --------------------
   L "沪宝钢_1" 115.0 "沪宝钢Y1" 115.0 "1"   5.697     94.795   0.261  21.715   86.248
   L "沪宝钢_1" 115.0 "沪宝钢_2" 115.0 "9"  10.161     85.795   0.466  21.491   86.327
   T "沪宝钢_1" 115.0 "沪宝钢_1" 230.0 "1"   6.435     82.335   0.295  16.062   85.453
"沪宝钢_1"  230.0     B      0.0     2     50.000     40.479  16125.878      0.714      3.249      0.689      3.196      0.395      3.479 "SB" 
.L/T       母线I            母线J      ID    支路电流(kA/deg)  百分数  开断短路电流(kA/deg)
.    ---------------- ---------------- ---  -----------------  ------  --------------------
   L "沪宝钢_1" 230.0 "沪宝能__" 230.0 "1"  38.986     82.914   0.963   2.758   87.884
   T "沪宝钢_1" 230.0 "沪宝钢_1" 115.0 "1"   1.592     87.333   0.039  39.616   83.646
"沪宝钢_2"  115.0     B      0.0     2     30.000     21.803   4342.905      0.098      3.017      0.081      2.670      0.090 100000.000 "SB" 
.L/T       母线I            母线J      ID    支路电流(kA/deg)  百分数  开断短路电流(kA/deg)
.    ---------------- ---------------- ---  -----------------  ------  --------------------
   L "沪宝钢_2" 115.0 "沪宝钢Y2" 115.0 "2"   5.702     94.790   0.262  21.715   86.248
   L "沪宝钢_2" 115.0 "沪宝钢_1" 115.0 "9"  10.241     85.770   0.470  21.486   86.327
   T "沪宝钢_2" 115.0 "沪宝钢_2" 230.0 "2"   6.348     82.345   0.291  16.147   85.476
"沪宝钢_2"  230.0     B      0.0     2     50.000     40.547  16152.914      0.709      3.244      0.684      3.191      0.395      3.426 "SB" 
.L/T       母线I            母线J      ID    支路电流(kA/deg)  百分数  开断短路电流(kA/deg)
.    ---------------- ---------------- ---  -----------------  ------  --------------------
   L "沪宝钢_2" 230.0 "沪宝能__" 230.0 "2"  39.076     82.846   0.964   2.736   88.010
   T "沪宝钢_2" 230.0 "沪宝钢_2" 115.0 "2"   1.569     87.363   0.039  39.702   83.570
"沪宝能__"  230.0     B      0.0     2     50.000     42.167  16798.240      0.668      3.123      0.643      3.072      0.268      3.103 "SB" 
.L/T       母线I            母线J      ID    支路电流(kA/deg)  百分数  开断短路电流(kA/deg)
.    ---------------- ---------------- ---  -----------------  ------  --------------------
   L "沪宝能__" 230.0 "沪宝钢_1" 230.0 "1"   1.559     99.794   0.037  41.247   82.408
   L "沪宝能__" 230.0 "沪宝钢_2" 230.0 "2"   1.538     99.938   0.036  41.267   82.406
   L "沪宝能__" 230.0 "沪新宝__" 230.0 "1"  10.910     84.412   0.259  37.790   82.623
   L "沪宝能__" 230.0 "沪杨行__" 230.0 "1"  14.462     80.986   0.343  38.103   83.245
   L "沪宝能__" 230.0 "沪杨行__" 230.0 "2"  13.960     81.543   0.331  38.317   83.079
"沪宝浏__"  230.0     B      0.0     2     50.000     44.482  17720.227      0.637      2.967      0.617      2.929      0.271      3.351 "SH" 
.L/T       母线I            母线J      ID    支路电流(kA/deg)  百分数  开断短路电流(kA/deg)
.    ---------------- ---------------- ---  -----------------  ------  --------------------
   L "沪宝浏__" 230.0 "沪泰和_F" 230.0 "1"   0.051     89.633   0.001  44.265   81.829
   L "沪宝浏__" 230.0 "沪同济43" 230.0 "1"   0.003    158.589   0.000  44.444   82.448
   L "沪宝浏__" 230.0 "沪同济44" 230.0 "1"   0.003    156.759   0.000  44.443   82.468
   L "沪宝浏__" 230.0 "沪杨行__" 230.0 "1"   8.790     79.609   0.198  43.291   82.786
   L "沪宝浏__" 230.0 "沪杨行__" 230.0 "2"   8.749     83.707   0.197  43.294   82.681
   L "沪宝浏__" 230.0 "沪杨行__" 230.0 "3"   8.885     83.466   0.200  43.270   82.676
   L "沪宝浏__" 230.0 "沪杨行__" 230.0 "4"   8.745     79.237   0.197  43.300   82.805
   L "沪宝浏__" 230.0 "沪一钢47" 230.0 "1"   0.016    150.676   0.000  44.424   82.416
   L "沪宝浏__" 230.0 "沪蕴站__" 230.0 "1"   9.224     85.042   0.207  41.574   81.977
"沪长春__"  230.0     B      0.0     2     50.000     29.361  11696.710      1.024      4.554      0.990      4.494      0.099      2.398 "SJ" 
.L/T       母线I            母线J      ID    支路电流(kA/deg)  百分数  开断短路电流(kA/deg)
.    ---------------- ---------------- ---  -----------------  ------  --------------------
   L "沪长春__" 230.0 "沪港口_2" 230.0 "1"   0.015    143.456   0.000  29.255   78.166
   L "沪长春__" 230.0 "沪瑞金42" 230.0 "1"   0.018    152.074   0.001  29.232   77.690
   L "沪长春__" 230.0 "沪吴二__" 230.0 "1"   7.347     81.077   0.250  26.880   78.718
   L "沪长春__" 230.0 "沪吴二__" 230.0 "2"   5.530     75.216   0.188  27.740   79.203
   L "沪长春__" 230.0 "沪泗泾__" 230.0 "1"   8.175     76.140   0.278  25.589   79.195
   L "沪长春__" 230.0 "沪泗泾__" 230.0 "2"   8.234     76.473   0.280  25.554   79.176
   L "沪长春__" 230.0 "沪漕溪22" 230.0 "1"   0.000    154.785   0.000  29.242   77.712
   L "沪长春__" 230.0 "沪漕溪44" 230.0 "1"   0.002    151.862   0.000  29.287   78.178
"沪长兴B1"  230.0     B      0.0     2     50.000      3.050   1215.084      3.789     45.260      3.756     45.276      0.529 100000.000 "SM" 
.L/T       母线I            母线J      ID    支路电流(kA/deg)  百分数  开断短路电流(kA/deg)
.    ---------------- ---------------- ---  -----------------  ------  --------------------
   T "沪长兴B1" 230.0 "沪长兴Z1" 230.0 "1"   2.870     70.899   0.941   0.278  117.486
   T "沪长兴B1" 230.0 "沪长兴_1"  37.0 "1"   0.181     75.430   0.059   2.871   72.369
   T "沪长兴B1" 230.0 "沪长兴_1" 115.0 "1"   0.000     75.964   0.000   3.050   72.324
"沪长兴B2"  230.0     B      0.0     2     50.000      3.052   1215.964      4.135     45.166      4.099     45.178      0.529 100000.000 "SM" 
.L/T       母线I            母线J      ID    支路电流(kA/deg)  百分数  开断短路电流(kA/deg)
.    ---------------- ---------------- ---  -----------------  ------  --------------------
   T "沪长兴B2" 230.0 "沪长兴F2" 230.0 "2"   2.876     70.812   0.942   0.294  120.707
   T "沪长兴B2" 230.0 "沪长兴_2"  37.0 "2"   0.178     76.069   0.058   2.877   72.404
   T "沪长兴B2" 230.0 "沪长兴_2" 115.0 "2"   0.000     75.964   0.000   3.052   72.391
"沪长兴F1"  230.0     B      0.0     2     50.000     34.033  13557.730      0.723      4.014      0.693      3.938      0.529      3.807 "SM" 
.L/T       母线I            母线J      ID    支路电流(kA/deg)  百分数  开断短路电流(kA/deg)
.    ---------------- ---------------- ---  -----------------  ------  --------------------
   L "沪长兴F1" 230.0 "沪长兴F2" 230.0 "1"  33.361     80.877   0.980   0.405  126.799
   L "沪长兴F1" 230.0 "沪长兴Z1" 230.0 "1"   0.418     94.297   0.012  34.033   80.975
   L "沪长兴F1" 230.0 "沪陈家_Z" 230.0 "2"   0.136     96.918   0.004  34.033   80.979
"沪长兴F2"  230.0     B      0.0     2     50.000     34.461  13728.245      0.722      3.962      0.692      3.886      0.529      3.641 "SM" 
.L/T       母线I            母线J      ID    支路电流(kA/deg)  百分数  开断短路电流(kA/deg)
.    ---------------- ---------------- ---  -----------------  ------  --------------------
   L "沪长兴F2" 230.0 "沪长兴F1" 230.0 "1"   0.681     91.752   0.020  34.179   80.619
   L "沪长兴F2" 230.0 "沪长兴Z2" 230.0 "1"  16.527     80.959   0.480  29.244   81.323
   L "沪长兴F2" 230.0 "沪洲海__" 230.0 "2"  16.963     80.902   0.492  28.936   81.230
   T "沪长兴F2" 230.0 "沪长兴B2" 230.0 "2"   0.168    104.041   0.005  34.245   80.811
"沪长兴Z1"  230.0     B      0.0     2     50.000     33.618  13392.483      0.724      4.065      0.693      3.990      0.530      3.969 "SM" 
.L/T       母线I            母线J      ID    支路电流(kA/deg)  百分数  开断短路电流(kA/deg)
.    ---------------- ---------------- ---  -----------------  ------  --------------------
   L "沪长兴Z1" 230.0 "沪长兴F1" 230.0 "1"  32.687     80.568   0.972  18.854   80.759
   L "沪长兴Z1" 230.0 "沪陈家_Z" 230.0 "1"   0.636     91.625   0.019  33.611   80.852
   T "沪长兴Z1" 230.0 "沪长兴B1" 230.0 "1"   0.171    101.118   0.005  33.406   80.593
"沪长兴Z2"  230.0     B      0.0     2     50.000     34.453  13725.025      0.722      3.962      0.691      3.887      0.530      3.639 "SM" 
.L/T       母线I            母线J      ID    支路电流(kA/deg)  百分数  开断短路电流(kA/deg)
.    ---------------- ---------------- ---  -----------------  ------  --------------------
   L "沪长兴Z2" 230.0 "沪长兴F2" 230.0 "1"  17.344     80.511   0.503  28.977   80.839
   L "沪长兴Z2" 230.0 "沪洲海__" 230.0 "1"  16.975     81.696   0.493  28.925   81.213
"沪长兴_1"  115.0     B      0.0     2     30.000      6.773   1349.066      0.947     10.183      0.939     10.187      0.132 100000.000 "SM" 
.L/T       母线I            母线J      ID    支路电流(kA/deg)  百分数  开断短路电流(kA/deg)
.    ---------------- ---------------- ---  -----------------  ------  --------------------
   T "沪长兴_1" 115.0 "沪长兴B1" 230.0 "1"   6.773     72.853   1.000   0.000   67.538
"沪长兴_2"  115.0     B      0.0     2     30.000      6.778   1350.140      1.034     10.159      1.025     10.163      0.132 100000.000 "SM" 
.L/T       母线I            母线J      ID    支路电流(kA/deg)  百分数  开断短路电流(kA/deg)
.    ---------------- ---------------- ---  -----------------  ------  --------------------
   T "沪长兴_2" 115.0 "沪长兴B2" 230.0 "2"   6.778     72.970   1.000   0.000   67.160
"沪辰塔_1"  230.0     B      0.0     2     50.000     18.006   7173.226      0.853      7.639      0.834      7.602      0.448      6.383 "SJ" 
.L/T       母线I            母线J      ID    支路电流(kA/deg)  百分数  开断短路电流(kA/deg)
.    ---------------- ---------------- ---  -----------------  ------  --------------------
   L "沪辰塔_1" 230.0 "沪辰塔_2" 230.0 "1"  17.958     75.552   0.997   0.448  149.937
   L "沪辰塔_1" 230.0 "沪文祥_F" 230.0 "1"   0.018    141.731   0.001  18.007   75.803
   L "沪辰塔_1" 230.0 "沪文祥_F" 230.0 "2"   0.018    141.755   0.001  18.007   75.803
"沪辰塔_2"  230.0     B      0.0     2     50.000     18.130   7222.286      0.850      7.587      0.831      7.550      0.449      6.346 "SJ" 
.L/T       母线I            母线J      ID    支路电流(kA/deg)  百分数  开断短路电流(kA/deg)
.    ---------------- ---------------- ---  -----------------  ------  --------------------
   L "沪辰塔_2" 230.0 "沪辰塔_1" 230.0 "1"   0.049     80.155   0.003  18.012   74.469
   L "沪辰塔_2" 230.0 "沪练塘__" 230.0 "1"   4.506     75.444   0.249  17.178   76.070
   L "沪辰塔_2" 230.0 "沪练塘__" 230.0 "2"   4.515     75.459   0.249  17.175   76.070
   L "沪辰塔_2" 230.0 "沪练塘__" 230.0 "3"   4.506     75.444   0.249  17.178   76.070
   L "沪辰塔_2" 230.0 "沪练塘__" 230.0 "4"   4.515     75.459   0.249  17.175   76.070
"沪陈家B1"  230.0     B      0.0     2     50.000      2.318    923.511      4.625     59.660      4.586     59.589      0.954 100000.000 "SM" 
.L/T       母线I            母线J      ID    支路电流(kA/deg)  百分数  开断短路电流(kA/deg)
.    ---------------- ---------------- ---  -----------------  ------  --------------------
   T "沪陈家B1" 230.0 "沪陈家_1"  37.0 "1"   0.000     63.435   0.000   2.318   71.788
   T "沪陈家B1" 230.0 "沪陈家_1" 115.0 "1"   0.000     63.435   0.000   2.318   71.788
   T "沪陈家B1" 230.0 "沪陈家_Z" 230.0 "1"   2.318     70.580   1.000   0.147  157.355
"沪陈家B2"  230.0     B      0.0     2     50.000      1.754    698.799     13.802     73.695     13.714     73.611      7.499 100000.000 "SM" 
.L/T       母线I            母线J      ID    支路电流(kA/deg)  百分数  开断短路电流(kA/deg)
.    ---------------- ---------------- ---  -----------------  ------  --------------------
   T "沪陈家B2" 230.0 "沪陈家_2"  37.0 "1"   0.000     75.964   0.000   1.754   74.181
   T "沪陈家B2" 230.0 "沪陈家_2" 115.0 "1"   0.000     75.964   0.000   1.754   74.181
   T "沪陈家B2" 230.0 "沪陈家_F" 230.0 "1"   1.754     71.796   1.000   0.222  153.574
"沪陈家_1"  115.0     B      0.0     2     30.000      5.172   1030.161      1.156     13.361      1.146     13.343      0.239 100000.000 "SM" 
.L/T       母线I            母线J      ID    支路电流(kA/deg)  百分数  开断短路电流(kA/deg)
.    ---------------- ---------------- ---  -----------------  ------  --------------------
   T "沪陈家_1" 115.0 "沪陈家B1" 230.0 "1"   5.172     72.301   1.000   0.000   67.355
"沪陈家_2"  115.0     B      0.0     2     30.000      3.819    760.688      3.450     16.870      3.429     16.849      1.875 100000.000 "SM" 
.L/T       母线I            母线J      ID    支路电流(kA/deg)  百分数  开断短路电流(kA/deg)
.    ---------------- ---------------- ---  -----------------  ------  --------------------
   T "沪陈家_2" 115.0 "沪陈家B2" 230.0 "1"   3.819     75.133   1.000   0.000   63.574
"沪陈家_F"  230.0     B      0.0     2     50.000      6.259   2493.339      5.112     20.475      5.040     20.376      7.499     40.725 "SM" 
.L/T       母线I            母线J      ID    支路电流(kA/deg)  百分数  开断短路电流(kA/deg)
.    ---------------- ---------------- ---  -----------------  ------  --------------------
   L "沪陈家_F" 230.0 "沪中港__" 230.0 "1"   3.141     81.500   0.502   4.993   83.971
   L "沪陈家_F" 230.0 "沪中港__" 230.0 "2"   3.062     83.195   0.489   5.039   82.574
   T "沪陈家_F" 230.0 "沪陈家B2" 230.0 "1"   0.000    153.697   0.000   6.189   80.964
"沪陈家_Z"  230.0     B      0.0     2     50.000     28.220  11242.028      0.857      4.849      0.827      4.774      0.954      4.825 "SM" 
.L/T       母线I            母线J      ID    支路电流(kA/deg)  百分数  开断短路电流(kA/deg)
.    ---------------- ---------------- ---  -----------------  ------  --------------------
   L "沪陈家_Z" 230.0 "沪长兴F1" 230.0 "2"  14.367     78.531   0.509  23.887   80.532
   L "沪陈家_Z" 230.0 "沪长兴Z1" 230.0 "1"  13.602     82.157   0.482  24.275   80.677
   T "沪陈家_Z" 230.0 "沪陈家B1" 230.0 "1"   0.000    157.559   0.000  28.186   80.438
"沪陈太__"  230.0     B      0.0     2     50.000     33.952  13525.445      0.595      4.005      0.579      3.959      0.349      5.094 "SX" 
.L/T       母线I            母线J      ID    支路电流(kA/deg)  百分数  开断短路电流(kA/deg)
.    ---------------- ---------------- ---  -----------------  ------  --------------------
   L "沪陈太__" 230.0 "沪大场__" 230.0 "1"   0.042     71.675   0.001  33.952   80.118
   L "沪陈太__" 230.0 "沪大场__" 230.0 "2"   0.042     71.675   0.001  33.952   80.118
   L "沪陈太__" 230.0 "沪静宜_1" 230.0 "1"   7.985     79.827   0.235  32.292   80.131
   L "沪陈太__" 230.0 "沪静宜_2" 230.0 "2"   7.982     79.831   0.235  32.292   80.130
   L "沪陈太__" 230.0 "沪武威_Z" 230.0 "1"   0.095     97.041   0.003  33.962   80.111
   L "沪陈太__" 230.0 "沪武威_Z" 230.0 "2"   0.095     97.041   0.003  33.962   80.111
   L "沪陈太__" 230.0 "沪徐行12" 230.0 "1"   8.804     79.443   0.259  30.646   80.396
   L "沪陈太__" 230.0 "沪徐行12" 230.0 "2"   8.804     79.443   0.259  30.646   80.396
"沪崇电__"  115.0     B      0.0     2     30.000      5.571   1109.735      2.696     11.579      2.607     11.391      5.976 100000.000 "SM" 
.L/T       母线I            母线J      ID    支路电流(kA/deg)  百分数  开断短路电流(kA/deg)
.    ---------------- ---------------- ---  -----------------  ------  --------------------
   L "沪崇电__" 115.0 "沪中港__" 115.0 "1"   2.212     80.711   0.397   4.328   79.156
   L "沪崇电__" 115.0 "沪中港__" 115.0 "2"   2.212     80.711   0.397   4.328   79.156
   T "沪崇电__" 115.0 "沪崇电16"   6.3 "6"   1.148     73.769   0.206   4.475   82.819
"沪春申__"  230.0     B      0.0     2     50.000     33.959  13528.163      0.821      3.970      0.790      3.913      0.428      3.985 "SJ" 
.L/T       母线I            母线J      ID    支路电流(kA/deg)  百分数  开断短路电流(kA/deg)
.    ---------------- ---------------- ---  -----------------  ------  --------------------
   L "沪春申__" 230.0 "沪龙泉05" 230.0 "1"   0.048    143.296   0.001  33.918   78.241
   L "沪春申__" 230.0 "沪吴二__" 230.0 "1"   5.129     79.749   0.151  32.757   78.539
   L "沪春申__" 230.0 "沪吴二__" 230.0 "2"   5.144     79.603   0.151  32.752   78.547
   L "沪春申__" 230.0 "沪泗泾__" 230.0 "1"  11.891     77.172   0.350  29.453   78.507
   L "沪春申__" 230.0 "沪泗泾__" 230.0 "2"  11.722     77.140   0.345  29.546   78.611
"沪大场__"  230.0     B      0.0     2     50.000     30.078  11982.106      0.663      4.523      0.648      4.478      0.573      6.721 "SX" 
.L/T       母线I            母线J      ID    支路电流(kA/deg)  百分数  开断短路电流(kA/deg)
.    ---------------- ---------------- ---  -----------------  ------  --------------------
   L "沪大场__" 230.0 "沪陈太__" 230.0 "1"  14.997     80.021   0.499  26.990   79.932
   L "沪大场__" 230.0 "沪陈太__" 230.0 "2"  14.997     80.021   0.499  26.990   79.932
"沪大学_1"  230.0     B      0.0     2     50.000     25.495  10156.641      1.075      5.306      1.049      5.260      1.436      9.590 "SJ" 
.L/T       母线I            母线J      ID    支路电流(kA/deg)  百分数  开断短路电流(kA/deg)
.    ---------------- ---------------- ---  -----------------  ------  --------------------
   L "沪大学_1" 230.0 "沪文祥_Z" 230.0 "1"  25.484     78.111   1.000   0.303  144.154
"沪大学_2"  230.0     B      0.0     2     50.000     13.209   5262.041      1.318     10.381      1.299     10.344      1.638     15.140 "SJ" 
.L/T       母线I            母线J      ID    支路电流(kA/deg)  百分数  开断短路电流(kA/deg)
.    ---------------- ---------------- ---  -----------------  ------  --------------------
   L "沪大学_2" 230.0 "沪文祥_F" 230.0 "1"  13.197     75.925   0.999   0.301  148.279
"沪大众_F"  230.0     B      0.0     2     50.000     17.354   6913.308      0.916      7.820      0.902      7.778      0.738      9.999 "SX" 
.L/T       母线I            母线J      ID    支路电流(kA/deg)  百分数  开断短路电流(kA/deg)
.    ---------------- ---------------- ---  -----------------  ------  --------------------
   L "沪大众_F" 230.0 "沪大众_Z" 230.0 "1"   8.658     79.478   0.499  11.557   77.953
   L "沪大众_F" 230.0 "沪新潭__" 230.0 "2"   8.681     78.436   0.500  11.553   78.990
"沪大众_Z"  230.0     B      0.0     2     50.000     17.354   6913.362      0.916      7.820      0.902      7.778      0.740     10.000 "SX" 
.L/T       母线I            母线J      ID    支路电流(kA/deg)  百分数  开断短路电流(kA/deg)
.    ---------------- ---------------- ---  -----------------  ------  --------------------
   L "沪大众_Z" 230.0 "沪大众_F" 230.0 "1"   8.638     78.034   0.498  11.587   78.714
   L "沪大众_Z" 230.0 "沪新潭__" 230.0 "1"   8.702     79.586   0.501  11.536   79.144
"沪东昌71"  230.0     B      0.0     2     50.000     22.246   8862.189      1.097      6.092      1.065      6.024      1.791      7.216 "SL" 
.L/T       母线I            母线J      ID    支路电流(kA/deg)  百分数  开断短路电流(kA/deg)
.    ---------------- ---------------- ---  -----------------  ------  --------------------
   L "沪东昌71" 230.0 "沪源深_Z" 230.0 "1"  22.218     79.845   0.999   0.219  153.731
"沪东昌72"  230.0     B      0.0     2     50.000     27.286  10869.825      0.767      5.062      0.754      5.035      1.394      5.368 "SG" 
.L/T       母线I            母线J      ID    支路电流(kA/deg)  百分数  开断短路电流(kA/deg)
.    ---------------- ---------------- ---  -----------------  ------  --------------------
   L "沪东昌72" 230.0 "沪源深_F" 230.0 "1"  27.257     80.606   0.999   0.157  159.994
"沪东昌88"  230.0     B      0.0     2     50.000     27.318  10882.567      0.947      4.961      0.915      4.888      1.472      3.769 "SL" 
.L/T       母线I            母线J      ID    支路电流(kA/deg)  百分数  开断短路电流(kA/deg)
.    ---------------- ---------------- ---  -----------------  ------  --------------------
   L "沪东昌88" 230.0 "沪银山__" 230.0 "1"  27.262     80.666   0.998   0.268  160.030
"沪奉燃__"  230.0     B      0.0     2     50.000     25.770  10266.101      0.517      5.332      0.498      5.247      0.575      9.099 "SC" 
.L/T       母线I            母线J      ID    支路电流(kA/deg)  百分数  开断短路电流(kA/deg)
.    ---------------- ---------------- ---  -----------------  ------  --------------------
   L "沪奉燃__" 230.0 "沪惠南_1" 230.0 "1"   6.001     78.830   0.233  22.874   76.953
   L "沪奉燃__" 230.0 "沪惠南_1" 230.0 "2"   5.955     79.073   0.231  22.904   76.919
   L "沪奉燃__" 230.0 "沪康桥_2" 230.0 "1"   2.407     79.126   0.093  25.220   77.302
   L "沪奉燃__" 230.0 "沪康桥_2" 230.0 "2"   2.387     79.551   0.093  25.228   77.290
   T "沪奉燃__" 230.0 "沪奉燃11"  15.0 "1"   1.497     78.407   0.058  24.286   77.822
   T "沪奉燃__" 230.0 "沪奉燃12"   6.3 "2"   0.758     72.007   0.029  25.018   77.650
   T "沪奉燃__" 230.0 "沪奉燃21"  15.0 "1"   1.497     78.407   0.058  24.286   77.822
   T "沪奉燃__" 230.0 "沪奉燃22"   6.3 "2"   0.758     72.007   0.029  25.018   77.650
   T "沪奉燃__" 230.0 "沪奉燃31"  15.0 "1"   1.493     75.193   0.058  24.286   77.822
   T "沪奉燃__" 230.0 "沪奉燃32"   6.3 "2"   0.758     72.007   0.029  25.018   77.650
   T "沪奉燃__" 230.0 "沪奉燃41"  15.0 "1"   1.494     72.011   0.058  24.286   77.822
   T "沪奉燃__" 230.0 "沪奉燃42"   6.3 "2"   0.758     72.007   0.029  25.018   77.650
"沪复兴47"  230.0     B      0.0     2     50.000     11.273   4490.799      2.624     12.010      2.605     11.974      1.065     12.665 "SG" 
.L/T       母线I            母线J      ID    支路电流(kA/deg)  百分数  开断短路电流(kA/deg)
.    ---------------- ---------------- ---  -----------------  ------  --------------------
   L "沪复兴47" 230.0 "沪浦建_1" 230.0 "1"  11.245     78.211   0.998   0.208  156.221
"沪复兴48"  230.0     B      0.0     2     50.000     25.785  10272.074      0.851      5.347      0.838      5.321      1.364      8.487 "SQ" 
.L/T       母线I            母线J      ID    支路电流(kA/deg)  百分数  开断短路电流(kA/deg)
.    ---------------- ---------------- ---  -----------------  ------  --------------------
   L "沪复兴48" 230.0 "沪浦建_2" 230.0 "1"  25.756     81.063   0.999   0.126  168.631
"沪干练_F"  230.0     B      0.0     2     50.000     18.106   7213.032      0.833      7.602      0.815      7.566      0.397      6.026 "SJ" 
...